Circuit: * C:\Users\Acer\eSim-Workspace\abdulmannan\abdulmannan.cir

U8: all pins shorted together -- ignoring.
Fatal Error: Missing node(s) for uniform RC-line U3
